Version 4
SHEET 1 880 680
WIRE 112 240 -32 240
WIRE 496 240 336 240
WIRE -32 256 -32 240
WIRE -32 432 -32 336
WIRE 288 432 288 336
WIRE 288 432 -32 432
SYMBOL LM2596xx 224 272 R0
SYMATTR InstName U1
SYMBOL voltage -32 240 R0
WINDOW 123 0 0 Left 0
WINDOW 39 0 0 Left 0
SYMATTR InstName V1
SYMATTR Value 24
TEXT 80 64 Left 2 !.include LM2596xx.txt
TEXT 80 88 Left 2 !.include 1n582x.txt
TEXT 88 112 Left 2 !.include B340A.txt
TEXT -66 438 Left 2 !.tran 5 startup
